Version 4
SHEET 1 1716 680
WIRE 0 -240 -112 -240
WIRE 160 -240 48 -240
WIRE 160 -208 160 -240
WIRE -112 -192 -112 -240
WIRE 160 -96 160 -128
WIRE -112 -80 -112 -112
WIRE 48 -64 48 -240
WIRE 0 -48 0 -240
WIRE 16 -48 0 -48
WIRE 352 -32 80 -32
WIRE -704 -16 -1136 -16
WIRE -512 -16 -640 -16
WIRE 16 -16 -512 -16
WIRE 352 -16 352 -32
WIRE -1136 96 -1136 -16
WIRE -512 144 -512 64
WIRE 352 160 352 64
WIRE -1136 224 -1136 176
WIRE 48 240 48 0
WIRE -1136 368 -1136 304
FLAG -1136 368 0
FLAG 48 240 0
FLAG 160 -96 0
FLAG -112 -80 0
FLAG -512 144 0
FLAG 352 160 0
SYMBOL voltage -1136 80 R0
WINDOW 123 0 0 Left 0
WINDOW 39 0 0 Left 0
SYMATTR InstName V1
SYMATTR Value PULSE(0 -1 0.5 10m 10m 0.5 1.5)
SYMBOL voltage -1136 208 R0
WINDOW 123 0 0 Left 0
WINDOW 39 0 0 Left 0
SYMATTR InstName V2
SYMATTR Value SINE(2 0.5 50)
SYMBOL voltage 160 -224 R0
WINDOW 123 0 0 Left 0
WINDOW 39 0 0 Left 0
SYMATTR InstName V4
SYMATTR Value 5
SYMBOL Opamps\\UniversalOpamp2 48 -32 R0
SYMATTR InstName U2
SYMBOL cap -640 -32 R90
WINDOW 0 0 32 VBottom 0
WINDOW 3 32 32 VTop 0
SYMATTR InstName C1
SYMATTR Value 100n
SYMBOL res -528 -32 R0
SYMATTR InstName R3
SYMATTR Value 270k
SYMBOL voltage -112 -208 R0
WINDOW 123 0 0 Left 0
WINDOW 39 0 0 Left 0
SYMATTR InstName V6
SYMATTR Value 0.9
SYMBOL res 336 -32 R0
SYMATTR InstName R1
SYMATTR Value 100k
TEXT -1144 -64 Left 0 !.tran 0 2 0 1m
